version 2
1
9
.tran 10m 1{return}.kicad adjustpaths{return}.save all{return}.probe alli
2
1
V(/Line_Audio_L)
 
1
V(/Line_Audio_R)
 
